22

O      -0.900055843703028      0.088113439909319     -0.329303691234248
O       1.274957568579073     -0.568816367393053     -0.220448904719114
C      -0.012755534245315     -0.878109945096588      0.205307139044403
C      -0.328133544057576     -2.281621414887367     -0.261342970524634
C      -2.162779701648172      0.148197449569278      0.309624995808888
C       1.765776326194539      0.669634547385466      0.280880193945603
C      -2.893982439204478      1.371426517259432     -0.196304741814078
C       3.195749678075439      0.831971892739312     -0.179649918624660
H      -0.063000784683216     -0.807943415178384      1.304249175745377
H      -0.305477455317808     -2.315105019889597     -1.347326225612379
H      -1.308507198339369     -2.600436936007248      0.082654830657911
H       0.417466688622133     -2.968005071653033      0.131413844926378
H      -2.741737965643951     -0.754779693349442      0.096763640355674
H      -2.025487137694977      0.207099282300034      1.394834342033167
H       1.141527106848415      1.487749274069329     -0.079889521732843
H       1.709957859398399      0.662478511526676      1.374931808511473
H      -3.876806316721061      1.441007198219777      0.266775478184143
H      -2.334955895509543      2.274235229553878      0.040526760799993
H      -3.023786984505262      1.318389539725611     -1.275081133458292
H       3.602146249052750      1.777054774728108      0.178533981844324
H       3.815859161097349      0.021815256523558      0.199579119114114
H       3.248928032864968      0.825145326065157     -1.266427764447216
